Version 4.1
SHEET 1 880 680
SYMBOL THS4522 240 160 R0
SYMATTR InstName U1
