Version 4.1
SHEET 1 996 680
WIRE 736 -928 736 -944
WIRE 736 -896 736 -928
WIRE 496 -576 416 -576
WIRE 608 -576 576 -576
WIRE 416 -512 416 -576
WIRE 496 -512 416 -512
WIRE 608 -512 576 -512
WIRE 416 -480 416 -512
WIRE 416 -480 224 -480
WIRE 992 -480 864 -480
WIRE 416 -448 416 -480
WIRE 496 -448 416 -448
WIRE 592 -448 576 -448
WIRE 608 -448 592 -448
WIRE 416 -416 416 -448
WIRE 432 -416 416 -416
WIRE 592 -416 592 -448
WIRE 592 -416 496 -416
WIRE 416 -384 416 -416
WIRE 496 -384 416 -384
WIRE 592 -384 576 -384
WIRE 608 -384 592 -384
WIRE 416 -352 416 -384
WIRE 432 -352 416 -352
WIRE 592 -352 592 -384
WIRE 592 -352 496 -352
WIRE 560 -320 528 -320
WIRE 608 -320 560 -320
WIRE 912 -320 864 -320
WIRE 928 -320 912 -320
WIRE 560 -256 528 -256
WIRE 608 -256 560 -256
WIRE 528 -240 528 -256
WIRE 672 -96 672 -144
WIRE 800 -96 800 -144
WIRE 672 -80 672 -96
WIRE 800 -80 800 -96
WIRE 224 -48 224 -480
WIRE 416 -48 224 -48
WIRE 608 -48 480 -48
WIRE 224 32 224 -48
WIRE 416 32 224 32
WIRE 608 32 608 -48
WIRE 608 32 480 32
WIRE -176 48 -208 48
WIRE 0 48 -96 48
WIRE 224 48 224 32
WIRE 224 48 64 48
WIRE -208 64 -208 48
WIRE -208 80 -208 64
WIRE 544 128 544 112
WIRE 224 160 224 48
WIRE 224 160 160 160
WIRE 320 160 320 128
WIRE 544 160 544 128
WIRE 160 176 160 160
WIRE 224 176 224 160
WIRE 272 176 224 176
WIRE 400 176 400 128
WIRE 400 176 384 176
WIRE 416 176 400 176
WIRE 512 176 416 176
WIRE -384 192 -384 176
WIRE -288 192 -288 176
WIRE -176 192 -176 176
WIRE -80 192 -80 176
WIRE 32 192 32 176
WIRE 608 192 608 32
WIRE 608 192 576 192
WIRE 704 192 608 192
WIRE 992 192 992 -480
WIRE 992 192 704 192
WIRE 416 208 416 176
WIRE 512 208 480 208
WIRE 704 208 704 192
WIRE -384 224 -384 192
WIRE -288 224 -288 192
WIRE -176 224 -176 192
WIRE -80 224 -80 192
WIRE 32 224 32 192
WIRE 160 256 160 240
WIRE 480 256 480 208
WIRE 544 256 544 224
WIRE 480 272 480 256
WIRE 544 272 544 256
WIRE 272 304 272 224
WIRE 320 304 320 240
WIRE 416 304 416 272
WIRE 704 304 704 272
WIRE -384 320 -384 304
WIRE -288 320 -288 304
WIRE -176 320 -176 304
WIRE -80 320 -80 304
WIRE 32 320 32 304
WIRE 272 320 272 304
WIRE 320 320 320 304
WIRE 336 320 320 320
WIRE 416 432 416 384
WIRE 416 448 416 432
FLAG 544 256 vss
FLAG 544 128 vdd
FLAG -80 320 0
FLAG -80 192 vdd
FLAG 32 320 0
FLAG 32 192 vss
FLAG 704 304 0
FLAG 160 256 0
FLAG -176 320 0
FLAG -176 192 vcm
FLAG 480 256 vcm
FLAG 272 304 vcm
FLAG 320 304 vcm
FLAG 416 432 vcm
FLAG -208 64 vcm
FLAG 912 -320 vdd
FLAG 800 -96 vss
FLAG 672 -96 vss
FLAG 736 -928 vdd
FLAG 560 -320 v0
FLAG 560 -256 v1
FLAG -288 320 0
FLAG -288 192 v1
FLAG -384 320 0
FLAG -384 192 v0
SYMBOL voltage -80 208 R0
WINDOW 123 0 0 Left 0
WINDOW 39 0 0 Left 0
SYMATTR InstName V1
SYMATTR Value 5
SYMBOL voltage 32 208 R0
WINDOW 123 0 0 Left 0
WINDOW 39 0 0 Left 0
SYMATTR InstName V2
SYMATTR Value 0
SYMBOL voltage 416 288 R0
WINDOW 123 24 124 Left 2
WINDOW 39 0 0 Left 0
SYMATTR Value2 AC 1
SYMATTR InstName V3
SYMATTR Value ""
SYMBOL cap 400 208 R0
SYMATTR InstName C2
SYMATTR Value 1
SYMBOL e 320 144 R0
SYMATTR InstName E1
SYMATTR Value 1
SYMBOL res 416 112 R90
WINDOW 0 0 56 VBottom 2
WINDOW 3 32 56 VTop 2
SYMATTR InstName R1
SYMATTR Value 1Meg
SYMBOL cap 688 208 R0
SYMATTR InstName C4
SYMATTR Value 40p
SYMBOL res -80 32 R90
WINDOW 0 0 56 VBottom 2
WINDOW 3 32 56 VTop 2
SYMATTR InstName R3
SYMATTR Value {R}
SYMBOL cap 64 32 R90
WINDOW 0 0 32 VBottom 2
WINDOW 3 32 32 VTop 2
SYMATTR InstName C5
SYMATTR Value 1p
SYMBOL OpAmps\\opamp2 544 128 R0
SYMATTR InstName U1
SYMATTR Value tlv916x
SYMBOL Switches\\ADG709 736 -576 R0
SYMATTR InstName U2
SYMBOL voltage -176 208 R0
WINDOW 123 0 0 Left 0
WINDOW 39 0 0 Left 0
SYMATTR InstName V4
SYMATTR Value 2.5
SYMBOL res 592 -400 R90
WINDOW 0 0 56 VBottom 2
WINDOW 3 32 56 VTop 2
SYMATTR InstName R4
SYMATTR Value 100k
SYMBOL voltage -288 208 R0
WINDOW 123 0 0 Left 0
WINDOW 39 0 0 Left 0
SYMATTR InstName V5
SYMATTR Value 5
SYMBOL voltage -384 208 R0
WINDOW 123 0 0 Left 0
WINDOW 39 0 0 Left 0
SYMATTR InstName V6
SYMATTR Value 0
SYMBOL res 592 -464 R90
WINDOW 0 0 56 VBottom 2
WINDOW 3 32 56 VTop 2
SYMATTR InstName R2
SYMATTR Value 10k
SYMBOL res 592 -528 R90
WINDOW 0 0 56 VBottom 2
WINDOW 3 32 56 VTop 2
SYMATTR InstName R5
SYMATTR Value 1k
SYMBOL res 592 -592 R90
WINDOW 0 0 56 VBottom 2
WINDOW 3 32 56 VTop 2
SYMATTR InstName R6
SYMATTR Value 100
SYMBOL cap 144 176 R0
SYMATTR InstName C1
SYMATTR Value 30p
SYMBOL cap 480 16 R90
WINDOW 0 0 32 VBottom 2
WINDOW 3 32 32 VTop 2
SYMATTR InstName C3
SYMATTR Value 2p
SYMBOL cap 496 -368 R90
WINDOW 0 0 32 VBottom 2
WINDOW 3 32 32 VTop 2
SYMATTR InstName C6
SYMATTR Value 10p
SYMBOL cap 496 -432 R90
WINDOW 0 0 32 VBottom 2
WINDOW 3 32 32 VTop 2
SYMATTR InstName C7
SYMATTR Value 10p
TEXT -104 -32 Left 2 !.ac dec 10 1 1G
TEXT -672 152 Left 2 !.param R=10000
TEXT -520 96 Left 2 !.include tlv916x.txt
