Version 4.1
SHEET 1 2216 1296
WIRE 96 -608 -64 -608
WIRE 224 -608 160 -608
WIRE -1088 -544 -1216 -544
WIRE -944 -544 -1008 -544
WIRE -848 -544 -944 -544
WIRE -688 -544 -768 -544
WIRE -64 -512 -64 -608
WIRE 80 -512 -64 -512
WIRE 224 -512 224 -608
WIRE 224 -512 160 -512
WIRE 1696 -448 1648 -448
WIRE 1808 -448 1696 -448
WIRE -1296 -432 -1328 -432
WIRE -1216 -432 -1216 -464
WIRE -1216 -432 -1296 -432
WIRE -800 -416 -800 -448
WIRE -64 -416 -64 -512
WIRE 1648 -416 1648 -448
WIRE -1216 -400 -1216 -432
WIRE 112 -400 112 -432
WIRE 704 -400 672 -400
WIRE 1696 -400 1696 -448
WIRE 704 -384 704 -400
WIRE 1520 -384 1488 -384
WIRE 1648 -384 1584 -384
WIRE 1808 -384 1808 -448
WIRE -800 -368 -800 -416
WIRE -944 -352 -944 -544
WIRE -832 -352 -944 -352
WIRE 112 -352 112 -400
WIRE -688 -336 -688 -544
WIRE -688 -336 -768 -336
WIRE -624 -336 -688 -336
WIRE -464 -336 -624 -336
WIRE -336 -336 -384 -336
WIRE -320 -336 -336 -336
WIRE -240 -336 -256 -336
WIRE -64 -336 -64 -416
WIRE -64 -336 -240 -336
WIRE 80 -336 -64 -336
WIRE 672 -336 672 -400
WIRE -1088 -320 -1216 -320
WIRE -944 -320 -1008 -320
WIRE -832 -320 -944 -320
WIRE 224 -320 224 -512
WIRE 224 -320 144 -320
WIRE 288 -320 224 -320
WIRE 480 -320 288 -320
WIRE 640 -320 560 -320
WIRE 80 -304 16 -304
WIRE 800 -304 704 -304
WIRE 1024 -304 800 -304
WIRE 1296 -304 1024 -304
WIRE 1456 -304 1376 -304
WIRE 1488 -304 1488 -384
WIRE 1488 -304 1456 -304
WIRE 1504 -304 1488 -304
WIRE 1616 -304 1584 -304
WIRE 640 -288 592 -288
WIRE 1696 -288 1696 -320
WIRE 1808 -288 1808 -320
WIRE 1808 -288 1696 -288
WIRE 16 -272 16 -304
WIRE -800 -256 -800 -304
WIRE 800 -256 800 -304
WIRE -944 -240 -944 -320
WIRE 112 -240 112 -288
WIRE 672 -224 672 -272
WIRE 1616 -224 1616 -304
WIRE 1808 -224 1808 -288
WIRE 1808 -224 1616 -224
WIRE 672 -192 672 -224
WIRE 16 -160 16 -192
WIRE 592 -128 592 -288
WIRE 800 -128 800 -176
WIRE 800 -128 592 -128
WIRE 1152 -128 1072 -128
WIRE 1200 -128 1152 -128
WIRE 1808 -128 1808 -224
WIRE 1840 -128 1808 -128
WIRE 2160 -128 2080 -128
WIRE 2208 -128 2160 -128
WIRE -944 -112 -944 -160
WIRE 1536 -112 1536 -160
WIRE 800 -96 800 -128
WIRE 1072 -96 1072 -128
WIRE 2080 -96 2080 -128
WIRE -944 -80 -944 -112
WIRE 1024 -80 1024 -304
WIRE 1456 -80 1456 -304
WIRE 1488 -80 1456 -80
WIRE 1648 -80 1648 -384
WIRE 1648 -80 1632 -80
WIRE 1728 -80 1648 -80
WIRE 1840 -80 1840 -128
WIRE 1840 -80 1808 -80
WIRE 2032 -80 1840 -80
WIRE 1440 -48 1424 -48
WIRE 1488 -48 1440 -48
WIRE 1488 -16 1456 -16
WIRE 1680 -16 1632 -16
WIRE 1728 -16 1680 -16
WIRE 1824 -16 1808 -16
WIRE 2032 -16 2032 -32
WIRE 2032 -16 1824 -16
WIRE 800 16 800 -16
WIRE 800 16 592 16
WIRE 1072 16 1072 -16
WIRE 2080 16 2080 -16
WIRE 1616 32 1568 32
WIRE 1632 32 1616 32
WIRE 800 64 800 16
WIRE 1536 64 1536 32
WIRE 1824 80 1824 -16
WIRE 1824 80 1808 80
WIRE 672 112 672 80
WIRE 1680 128 1680 -16
WIRE 1680 128 1632 128
WIRE 672 160 672 112
WIRE 592 176 592 16
WIRE 640 176 592 176
WIRE 800 192 800 144
WIRE 800 192 704 192
WIRE 1024 192 1024 -32
WIRE 1024 192 800 192
WIRE 1296 192 1024 192
WIRE 1456 192 1456 -16
WIRE 1456 192 1376 192
WIRE 1488 192 1456 192
WIRE 1504 192 1488 192
WIRE 1808 192 1808 80
WIRE 1808 192 1584 192
WIRE -1344 208 -1344 176
WIRE -1200 208 -1200 176
WIRE 400 208 384 208
WIRE 480 208 400 208
WIRE 640 208 560 208
WIRE 1808 240 1808 192
WIRE -1344 256 -1344 208
WIRE -1200 256 -1200 208
WIRE 672 272 672 224
WIRE 1488 288 1488 192
WIRE 1504 288 1488 288
WIRE 1632 288 1632 128
WIRE 1632 288 1568 288
WIRE 1808 336 1808 304
WIRE -1344 368 -1344 336
WIRE -1200 368 -1200 336
WIRE 704 400 672 400
WIRE 704 416 704 400
WIRE 672 464 672 400
WIRE -336 480 -336 -336
WIRE -336 480 -352 480
WIRE 480 480 -336 480
WIRE 640 480 560 480
WIRE 800 496 704 496
WIRE 1024 496 800 496
WIRE 640 512 592 512
WIRE 800 544 800 496
WIRE 672 576 672 528
WIRE 672 608 672 576
WIRE 592 672 592 512
WIRE 800 672 800 624
WIRE 800 672 592 672
WIRE 1152 672 1072 672
WIRE 1200 672 1152 672
WIRE 800 704 800 672
WIRE 1072 704 1072 672
WIRE 1024 720 1024 496
WIRE 32 736 -48 736
WIRE 80 736 32 736
WIRE -48 768 -48 736
WIRE -352 784 -352 480
WIRE -96 784 -352 784
WIRE 800 816 800 784
WIRE 800 816 592 816
WIRE 1072 816 1072 784
WIRE -192 832 -208 832
WIRE -96 832 -192 832
WIRE 800 864 800 816
WIRE -48 880 -48 848
WIRE 672 912 672 880
WIRE 672 960 672 912
WIRE 592 976 592 816
WIRE 640 976 592 976
WIRE 800 992 800 944
WIRE 800 992 704 992
WIRE 1024 992 1024 768
WIRE 1024 992 800 992
WIRE 416 1008 384 1008
WIRE 480 1008 416 1008
WIRE 640 1008 560 1008
WIRE 672 1072 672 1024
FLAG -800 -256 0
FLAG -800 -416 VDDA
FLAG -1296 -432 VCM
FLAG -624 -336 vsig
FLAG -1344 368 0
FLAG -1344 208 VDDA
FLAG -1200 368 0
FLAG -1200 208 VCM
FLAG -944 -112 VCM
FLAG 112 -240 0
FLAG 112 -400 VDDA
FLAG 288 -320 vout
FLAG 704 -384 0
FLAG 672 -224 VDDA
FLAG 672 272 0
FLAG 672 112 VDDA
FLAG 1072 16 0
FLAG 1152 -128 i_dut
FLAG 704 416 0
FLAG 672 576 VDDA
FLAG 672 1072 0
FLAG 672 912 VDDA
FLAG 1072 816 0
FLAG 1152 672 v_dut
FLAG 416 1008 VN
FLAG 16 -160 0
FLAG 1440 -48 VCM
FLAG 1536 -160 VDDA
FLAG 1536 64 0
FLAG 1616 32 VDDA
FLAG 2080 16 0
FLAG 2160 -128 i_dut2
FLAG 1648 -416 0
FLAG 1808 336 0
FLAG -48 880 0
FLAG 32 736 v_dutraw
FLAG -192 832 VN
FLAG -64 -416 VN
FLAG 400 208 VN
SYMBOL OpAmps\\opamp2 -800 -400 R0
SYMATTR InstName U1
SYMATTR Value TLV354
SYMBOL res -992 -560 R90
WINDOW 0 0 56 VBottom 2
WINDOW 3 32 56 VTop 2
SYMATTR InstName R
SYMATTR Value {2*R}
SYMBOL res -992 -336 R90
WINDOW 0 0 56 VBottom 2
WINDOW 3 32 56 VTop 2
SYMATTR InstName R2
SYMATTR Value {2*R}
SYMBOL res -960 -256 R0
SYMATTR InstName R3
SYMATTR Value {R}
SYMBOL res -752 -560 R90
WINDOW 0 0 56 VBottom 2
WINDOW 3 32 56 VTop 2
SYMATTR InstName R4
SYMATTR Value {R}
SYMBOL voltage -1216 -560 R0
WINDOW 0 -68 50 Left 2
WINDOW 3 -166 -2 Left 2
WINDOW 123 0 0 Left 0
WINDOW 39 0 0 Left 0
SYMATTR InstName V1
SYMATTR Value SINE(0 {VIN} 50000)
SYMBOL voltage -1216 -416 R0
WINDOW 0 -68 50 Left 2
WINDOW 3 -166 117 Left 2
WINDOW 123 0 0 Left 0
WINDOW 39 0 0 Left 0
SYMATTR InstName V2
SYMATTR Value SINE(0 {VIN} 50000)
SYMBOL voltage -1344 240 R0
WINDOW 123 0 0 Left 0
WINDOW 39 0 0 Left 0
SYMATTR InstName V3
SYMATTR Value 5
SYMBOL voltage -1200 240 R0
WINDOW 123 0 0 Left 0
WINDOW 39 0 0 Left 0
SYMATTR InstName V4
SYMATTR Value 2.5
SYMBOL OpAmps\\opamp2 112 -384 R0
SYMATTR InstName U2
SYMATTR Value TLV354
SYMBOL res -368 -352 R90
WINDOW 0 0 56 VBottom 2
WINDOW 3 32 56 VTop 2
SYMATTR InstName R1
SYMATTR Value 100
SYMBOL res 176 -528 R90
WINDOW 0 0 56 VBottom 2
WINDOW 3 32 56 VTop 2
SYMATTR InstName R5
SYMATTR Value 100
SYMBOL OpAmps\\opamp2 672 -240 M180
SYMATTR InstName U3
SYMATTR Value OPA365
SYMBOL OpAmps\\opamp2 672 128 R0
SYMATTR InstName U4
SYMATTR Value OPA365
SYMBOL res 784 -272 R0
SYMATTR InstName R7
SYMATTR Value {R}
SYMBOL e 1072 -112 R0
SYMATTR InstName E3
SYMATTR Value 1
SYMBOL res 784 48 R0
SYMATTR InstName R8
SYMATTR Value {R}
SYMBOL OpAmps\\opamp2 672 560 M180
SYMATTR InstName U5
SYMATTR Value OPA365
SYMBOL OpAmps\\opamp2 672 928 R0
SYMATTR InstName U6
SYMATTR Value OPA365
SYMBOL res 784 528 R0
SYMATTR InstName R9
SYMATTR Value {50*R}
SYMBOL e 1072 688 R0
SYMATTR InstName E1
SYMATTR Value 1
SYMBOL res 784 688 R0
SYMATTR InstName R10
SYMATTR Value {R}
SYMBOL res 784 848 R0
SYMATTR InstName R11
SYMATTR Value {50*R}
SYMBOL res 576 464 R90
WINDOW 0 0 56 VBottom 2
WINDOW 3 32 56 VTop 2
SYMATTR InstName R12
SYMATTR Value {R_diffin}
SYMBOL res 576 992 R90
WINDOW 0 0 56 VBottom 2
WINDOW 3 32 56 VTop 2
SYMATTR InstName R13
SYMATTR Value {R_diffin}
SYMBOL res 576 192 R90
WINDOW 0 0 56 VBottom 2
WINDOW 3 32 56 VTop 2
SYMATTR InstName R14
SYMATTR Value {R_diffin}
SYMBOL res 576 -336 R90
WINDOW 0 0 56 VBottom 2
WINDOW 3 32 56 VTop 2
SYMATTR InstName R15
SYMATTR Value {R_diffin}
SYMBOL voltage 16 -288 R0
WINDOW 123 0 0 Left 0
WINDOW 39 0 0 Left 0
SYMATTR InstName V5
SYMATTR Value 2.5
SYMBOL res 1392 -320 R90
WINDOW 0 0 56 VBottom 2
WINDOW 3 32 56 VTop 2
SYMATTR InstName R16
SYMATTR Value 1k
SYMBOL res 1392 176 R90
WINDOW 0 0 56 VBottom 2
WINDOW 3 32 56 VTop 2
SYMATTR InstName R17
SYMATTR Value 1k
SYMBOL res 1600 -320 R90
WINDOW 0 0 56 VBottom 2
WINDOW 3 32 56 VTop 2
SYMATTR InstName R18
SYMATTR Value 500
SYMBOL res 1600 176 R90
WINDOW 0 0 56 VBottom 2
WINDOW 3 32 56 VTop 2
SYMATTR InstName R19
SYMATTR Value 500
SYMBOL e 2080 -112 R0
SYMATTR InstName E2
SYMATTR Value 1
SYMBOL res 1824 -32 R90
WINDOW 0 0 56 VBottom 2
WINDOW 3 32 56 VTop 2
SYMATTR InstName R20
SYMATTR Value 30
SYMBOL res 1824 -96 R90
WINDOW 0 0 56 VBottom 2
WINDOW 3 32 56 VTop 2
SYMATTR InstName R21
SYMATTR Value 30
SYMBOL res 1680 -416 R0
SYMATTR InstName R22
SYMATTR Value 1Meg
SYMBOL cap 1792 -384 R0
SYMATTR InstName C3
SYMATTR Value 5n
SYMBOL cap 1792 240 R0
SYMATTR InstName C4
SYMATTR Value 5n
SYMBOL cap 1584 -400 R90
WINDOW 0 0 32 VBottom 2
WINDOW 3 32 32 VTop 2
SYMATTR InstName C5
SYMATTR Value 300p
SYMBOL cap 1568 272 R90
WINDOW 0 0 32 VBottom 2
WINDOW 3 32 32 VTop 2
SYMATTR InstName C6
SYMATTR Value 330p
SYMBOL e -48 752 R0
SYMATTR InstName E4
SYMATTR Value 1
SYMBOL ind -224 -352 R90
WINDOW 0 5 56 VBottom 2
WINDOW 3 32 56 VTop 2
SYMATTR InstName L1
SYMATTR Value 1e-6
SYMBOL THS4561 1552 -48 R0
SYMATTR InstName U7
TEXT -2496 -384 Left 2 !.include TLV354.txt \n.include OPA365.txt
TEXT -2496 -472 Left 2 !.tran 0 100u 0 10n
TEXT -1936 -472 Left 2 !.param R=1k VIN=1.25 R_diffin=1m
TEXT -2464 -192 Left 2 !.options gmin=1e-10\n.options gshunt=1e-9\n.options reltol=0.01\n.options abstol=1n
