Version 4.1
SHEET 1 3320 1268
WIRE 2208 -624 2000 -624
WIRE 2464 -624 2288 -624
WIRE 1216 -592 1216 -608
WIRE 1216 -544 1216 -592
WIRE 1184 -528 704 -528
WIRE 1344 -512 1248 -512
WIRE 1392 -512 1344 -512
WIRE 1840 -512 1392 -512
WIRE 1984 -512 1920 -512
WIRE 2000 -512 2000 -624
WIRE 2000 -512 1984 -512
WIRE 2112 -512 2000 -512
WIRE 2272 -512 2176 -512
WIRE 1136 -496 832 -496
WIRE 1184 -496 1136 -496
WIRE 2144 -432 2144 -448
WIRE 1216 -416 1216 -480
WIRE 1216 -400 1216 -416
WIRE 2144 -384 2144 -432
WIRE 1136 -336 1136 -496
WIRE 1152 -336 1136 -336
WIRE 1200 -336 1152 -336
WIRE 1312 -336 1280 -336
WIRE 1344 -336 1344 -512
WIRE 1344 -336 1312 -336
WIRE 1984 -336 1984 -512
WIRE 2080 -336 1984 -336
WIRE 2272 -336 2272 -512
WIRE 2272 -336 2224 -336
WIRE 2320 -336 2272 -336
WIRE 2464 -336 2464 -624
WIRE 2464 -336 2400 -336
WIRE 2560 -336 2464 -336
WIRE 2672 -336 2560 -336
WIRE 1888 -304 1856 -304
WIRE 2080 -304 1888 -304
WIRE 1152 -288 1152 -336
WIRE 1248 -288 1152 -288
WIRE 1312 -288 1312 -336
WIRE 1888 -288 1888 -304
WIRE 2080 -272 1984 -272
WIRE 2272 -272 2224 -272
WIRE 2320 -272 2272 -272
WIRE 2464 -272 2400 -272
WIRE 2560 -272 2464 -272
WIRE 2672 -272 2560 -272
WIRE 1200 -224 1136 -224
WIRE 1344 -224 1280 -224
WIRE 1136 -176 1136 -224
WIRE 1248 -176 1136 -176
WIRE 1344 -176 1344 -224
WIRE 1344 -176 1312 -176
WIRE 1888 -176 1888 -224
WIRE 2144 -176 2144 -224
WIRE 1888 -160 1888 -176
WIRE 2144 -160 2144 -176
WIRE 1216 -128 1216 -160
WIRE 1216 -80 1216 -128
WIRE 1136 -64 1136 -176
WIRE 1136 -64 864 -64
WIRE 1184 -64 1136 -64
WIRE 1344 -48 1344 -176
WIRE 1344 -48 1248 -48
WIRE 1584 -48 1344 -48
WIRE 1840 -48 1584 -48
WIRE 1984 -48 1984 -272
WIRE 1984 -48 1920 -48
WIRE 2000 -48 1984 -48
WIRE 2112 -48 2000 -48
WIRE 2272 -48 2272 -272
WIRE 2272 -48 2176 -48
WIRE 1184 -32 704 -32
WIRE 1216 16 1216 -16
WIRE 1216 32 1216 16
WIRE 2000 64 2000 -48
WIRE 2208 64 2000 64
WIRE 2464 64 2464 -272
WIRE 2464 64 2288 64
WIRE 1392 112 1392 -512
WIRE 1392 112 1232 112
WIRE 1584 112 1584 -48
WIRE 1744 112 1584 112
WIRE 1392 208 1392 192
WIRE 1392 208 1264 208
WIRE 1584 208 1584 192
WIRE 1712 208 1584 208
WIRE 1040 272 1040 240
WIRE 1392 304 1392 288
WIRE 1392 304 1296 304
WIRE 1584 304 1584 288
WIRE 1680 304 1584 304
WIRE 1040 336 1040 272
WIRE 1232 400 1232 112
WIRE 1232 400 1168 400
WIRE 1392 400 1392 384
WIRE 1392 400 1328 400
WIRE 1584 400 1584 384
WIRE 1648 400 1584 400
WIRE 1264 464 1264 208
WIRE 1264 464 1168 464
WIRE 832 496 832 -496
WIRE 912 496 832 496
WIRE 1392 496 1392 480
WIRE 1584 496 1584 480
WIRE 1584 496 1392 496
WIRE 1296 528 1296 304
WIRE 1296 528 1168 528
WIRE 1328 592 1328 400
WIRE 1328 592 1168 592
WIRE 1744 656 1744 112
WIRE 1744 656 1168 656
WIRE 1712 720 1712 208
WIRE 1712 720 1168 720
WIRE 864 752 864 -64
WIRE 912 752 864 752
WIRE 928 752 912 752
WIRE 1680 784 1680 304
WIRE 1680 784 1168 784
WIRE 1648 848 1648 400
WIRE 1648 848 1168 848
WIRE 816 912 800 912
WIRE 912 912 816 912
WIRE 1248 912 1168 912
WIRE 1248 976 1168 976
WIRE 976 1152 976 1088
WIRE 1104 1152 1104 1088
WIRE 1104 1152 976 1152
WIRE 976 1200 976 1152
WIRE 976 1216 976 1200
FLAG 1216 -128 VDD
FLAG 1040 272 VDD
FLAG 816 912 VDD
FLAG 976 1200 VSS
FLAG 704 -528 VP
IOPIN 704 -528 In
FLAG 704 -32 VN
IOPIN 704 -32 In
FLAG 2672 -272 OUTP
IOPIN 2672 -272 Out
FLAG 2672 -336 OUTN
IOPIN 2672 -336 Out
FLAG 1248 912 A0
IOPIN 1248 912 In
FLAG 1248 976 A1
IOPIN 1248 976 In
FLAG 544 944 VDD
IOPIN 544 944 BiDir
FLAG 544 976 VSS
IOPIN 544 976 BiDir
FLAG 1216 16 VSS
FLAG 1216 -416 VDD
FLAG 1216 -592 VSS
FLAG 2144 -432 VDD
FLAG 2144 -176 VSS
FLAG 1888 -176 VSS
FLAG 1856 -304 VCM
IOPIN 1856 -304 In
SYMBOL res 1600 96 M0
SYMATTR InstName R5
SYMATTR Value 8.2k
SYMBOL res 1600 192 M0
SYMATTR InstName R6
SYMATTR Value 1.6k
SYMBOL res 1600 288 M0
SYMATTR InstName R7
SYMATTR Value 300
SYMBOL res 1600 384 M0
SYMATTR InstName R8
SYMATTR Value 100
SYMBOL Switches\\ADG1209 1040 656 M0
SYMATTR InstName U2
SYMBOL res 1296 -240 R90
WINDOW 0 0 56 VBottom 2
WINDOW 3 32 56 VTop 2
SYMATTR InstName R9
SYMATTR Value 10Meg
SYMBOL res 1296 -352 R90
WINDOW 0 0 56 VBottom 2
WINDOW 3 32 56 VTop 2
SYMATTR InstName R10
SYMATTR Value 10Meg
SYMBOL OpAmps\\opamp2 1216 -112 R0
SYMATTR InstName U3
SYMATTR Value OPA365
SYMBOL OpAmps\\opamp2 1216 -448 M180
SYMATTR InstName U4
SYMATTR Value OPA365
SYMBOL res 1936 -528 R90
WINDOW 0 0 56 VBottom 2
WINDOW 3 32 56 VTop 2
SYMATTR InstName R11
SYMATTR Value 1k
SYMBOL res 1936 -64 R90
WINDOW 0 0 56 VBottom 2
WINDOW 3 32 56 VTop 2
SYMATTR InstName R12
SYMATTR Value 1k
SYMBOL res 2416 -352 R90
WINDOW 0 0 56 VBottom 2
WINDOW 3 -29 9 VTop 2
SYMATTR InstName R13
SYMATTR Value 22
SYMBOL res 2416 -288 R90
WINDOW 0 58 4 VBottom 2
WINDOW 3 32 56 VTop 2
SYMATTR InstName R14
SYMATTR Value 22
SYMBOL cap 2176 -528 R90
WINDOW 0 0 32 VBottom 2
WINDOW 3 32 32 VTop 2
SYMATTR InstName C1
SYMATTR Value 470p
SYMBOL cap 2176 -64 R90
WINDOW 0 0 32 VBottom 2
WINDOW 3 32 32 VTop 2
SYMATTR InstName C2
SYMATTR Value 470p
SYMBOL res 2304 -640 R90
WINDOW 0 0 56 VBottom 2
WINDOW 3 32 56 VTop 2
SYMATTR InstName R15
SYMATTR Value 1k
SYMBOL res 2304 48 R90
WINDOW 0 0 56 VBottom 2
WINDOW 3 32 56 VTop 2
SYMATTR InstName R16
SYMATTR Value 1k
SYMBOL cap 2544 -336 R0
SYMATTR InstName C3
SYMATTR Value 2.7n
SYMBOL cap 1872 -288 R0
SYMATTR InstName C4
SYMATTR Value 100n
SYMBOL cap 1312 -304 R90
WINDOW 0 0 32 VBottom 2
WINDOW 3 32 32 VTop 2
SYMATTR InstName C5
SYMATTR Value 2p
SYMBOL cap 1312 -192 R90
WINDOW 0 0 32 VBottom 2
WINDOW 3 32 32 VTop 2
SYMATTR InstName C6
SYMATTR Value 2p
SYMBOL res 1408 96 M0
SYMATTR InstName R1
SYMATTR Value 8.2k
SYMBOL res 1408 192 M0
SYMATTR InstName R2
SYMATTR Value 1.6k
SYMBOL res 1408 288 M0
SYMATTR InstName R3
SYMATTR Value 300
SYMBOL res 1408 384 M0
SYMATTR InstName R4
SYMATTR Value 100
SYMBOL THS4561 2144 -304 R0
SYMATTR InstName U1
