Version 4.1
SHEET 1 880 904
WIRE 192 64 192 48
WIRE 192 96 192 64
WIRE -96 112 -128 112
WIRE 0 112 -16 112
WIRE 0 160 0 112
WIRE 112 160 0 160
WIRE -176 192 -192 192
WIRE -128 192 -128 112
WIRE -128 192 -176 192
WIRE 384 192 304 192
WIRE 112 224 0 224
WIRE 64 256 48 256
WIRE 112 256 64 256
WIRE -128 272 -128 192
WIRE -96 272 -128 272
WIRE 0 272 0 224
WIRE 0 272 -16 272
WIRE 192 336 192 288
WIRE 192 352 192 336
WIRE -32 528 -32 496
WIRE 112 528 112 496
WIRE 240 528 240 496
WIRE -32 576 -32 528
WIRE 112 576 112 528
WIRE 240 576 240 528
WIRE -32 704 -32 656
WIRE 112 704 112 656
WIRE 240 704 240 656
WIRE 112 720 112 704
WIRE 240 720 240 704
FLAG -176 192 VCM
FLAG -32 704 0
FLAG -32 528 VSS
FLAG 112 704 VSS
FLAG 112 528 VDD
FLAG 240 704 VSS
FLAG 240 528 VCM
FLAG 192 64 VDD
FLAG 64 256 VCM
FLAG 192 336 VSS
SYMBOL dac_filter 176 96 R0
WINDOW 0 86 -11 Bottom 2
SYMATTR InstName X1
SYMBOL voltage 0 112 R90
WINDOW 0 -32 56 VBottom 2
WINDOW 3 -80 58 VTop 2
WINDOW 123 -4 56 VBottom 2
WINDOW 39 0 0 Left 0
SYMATTR InstName V1
SYMATTR Value SINE(0 1 50000)
SYMATTR Value2 AC 1
SYMBOL voltage -112 272 R270
WINDOW 0 32 56 VTop 2
WINDOW 3 -32 56 VBottom 2
WINDOW 123 4 56 VTop 2
WINDOW 39 0 0 Left 0
SYMATTR InstName V2
SYMATTR Value SINE(0 1 50000)
SYMATTR Value2 AC 1
SYMBOL voltage 112 560 R0
WINDOW 123 0 0 Left 0
WINDOW 39 0 0 Left 0
SYMATTR InstName V3
SYMATTR Value 5
SYMBOL voltage -32 560 R0
WINDOW 123 0 0 Left 0
WINDOW 39 0 0 Left 0
SYMATTR InstName V4
SYMATTR Value 0
SYMBOL voltage 240 560 R0
WINDOW 123 0 0 Left 0
WINDOW 39 0 0 Left 0
SYMATTR InstName V5
SYMATTR Value 2.5
TEXT -360 840 Left 2 !.include tlv916x.txt
TEXT -8 840 Left 2 ;.ac dec 20 10 10Meg
TEXT -8 888 Left 2 !.tran 0 100u 0 10n
